<?xml version="1.0" encoding="UTF-8"?>

<!-- generated on 02/17/22 11:14:56 by Eclipse SUMO netedit Version 1.8.0
<configuration xmlns:xsi="http://www.w3.org/2001/XMLSchema-instance" xsi:noNamespaceSchemaLocation="http://sumo.dlr.de/xsd/netconvertConfiguration.xsd">

    <input>
        <sumo-net-file value="D:\SUMO-Map\sumomap-300m.net.xml"/>
    </input>

    <output>
        <output-file value="D:\SUMO-Map\sumomap-300m.net.xml"/>
    </output>

    <processing>
        <geometry.min-radius.fix.railways value="false"/>
        <geometry.max-grade.fix value="false"/>
        <offset.disable-normalization value="true"/>
        <lefthand value="false"/>
    </processing>

    <junctions>
        <no-turnarounds value="true"/>
        <junctions.corner-detail value="5"/>
        <junctions.limit-turn-speed value="5.5"/>
        <rectangular-lane-cut value="false"/>
    </junctions>

    <pedestrian>
        <walkingareas value="false"/>
    </pedestrian>

    <netedit>
        <additional-files value="D:\SUMO-Map\HOS1.add.xml"/>
    </netedit>

    <report>
        <aggregate-warnings value="5"/>
    </report>

</configuration>
-->

<additional xmlns:xsi="http://www.w3.org/2001/XMLSchema-instance" xsi:noNamespaceSchemaLocation="http://sumo.dlr.de/xsd/additional_file.xsd">
    <poly id="hos1" type="building" color="red" fill="1" layer="128.00" shape="366.140000,381.650000 366.140000,368.350000 370.210000,368.310000 370.210000,381.690000 366.140000,381.560000"/>
    <poly id="hos2" type="building" color="red" fill="1" layer="128.00" shape="361.330000,376.750000 375.720000,376.770000 375.720000,372.960000 361.210000,372.930000 361.250000,376.700000"/>
</additional>
