<?xml version="1.0" encoding="UTF-8"?>

<!-- generated on 02/01/22 16:17:22 by Eclipse SUMO netedit Version 1.8.0
<configuration xmlns:xsi="http://www.w3.org/2001/XMLSchema-instance" xsi:noNamespaceSchemaLocation="http://sumo.dlr.de/xsd/netconvertConfiguration.xsd">

    <input>
        <sumo-net-file value="D:\SUMO-Map\sumomap.net.xml"/>
    </input>

    <output>
        <output-file value="D:\SUMO-Map\sumomap.net.xml"/>
    </output>

    <processing>
        <geometry.min-radius.fix.railways value="false"/>
        <geometry.max-grade.fix value="false"/>
        <offset.disable-normalization value="true"/>
        <lefthand value="false"/>
    </processing>

    <junctions>
        <no-turnarounds value="true"/>
        <junctions.corner-detail value="5"/>
        <junctions.limit-turn-speed value="5.5"/>
        <rectangular-lane-cut value="false"/>
    </junctions>

    <pedestrian>
        <walkingareas value="false"/>
    </pedestrian>

    <report>
        <aggregate-warnings value="5"/>
    </report>

</configuration>
-->

<net version="1.6" junctionCornerDetail="5" limitTurnSpeed="5.50" xmlns:xsi="http://www.w3.org/2001/XMLSchema-instance" xsi:noNamespaceSchemaLocation="http://sumo.dlr.de/xsd/net_file.xsd">

    <location netOffset="0.00,0.00" convBoundary="-100.00,-100.00,300.00,300.00" origBoundary="-10000000000.00,-10000000000.00,10000000000.00,10000000000.00" projParameter="!"/>

    <edge id=":cross1_0" function="internal">
        <lane id=":cross1_0_0" index="0" speed="6.51" length="9.03" shape="-4.80,10.40 -5.15,7.95 -6.20,6.20 -7.95,5.15 -10.40,4.80"/>
    </edge>
    <edge id=":cross1_1" function="internal">
        <lane id=":cross1_1_0" index="0" speed="8.00" length="14.19" shape="-1.60,10.40 -2.15,6.55 -3.80,3.80 -6.55,2.15 -10.40,1.60"/>
    </edge>
    <edge id=":cross1_2" function="internal">
        <lane id=":cross1_2_0" index="0" speed="13.89" length="20.80" shape="-1.60,10.40 -1.60,-10.40"/>
    </edge>
    <edge id=":cross1_3" function="internal">
        <lane id=":cross1_3_0" index="0" speed="9.26" length="6.96" shape="-1.60,10.40 -0.85,5.15 -0.00,3.73"/>
    </edge>
    <edge id=":cross1_16" function="internal">
        <lane id=":cross1_16_0" index="0" speed="9.26" length="12.40" shape="-0.00,3.73 1.40,1.40 5.15,-0.85 10.40,-1.60"/>
    </edge>
    <edge id=":cross1_4" function="internal">
        <lane id=":cross1_4_0" index="0" speed="6.51" length="9.03" shape="10.40,4.80 7.95,5.15 6.20,6.20 5.15,7.95 4.80,10.40"/>
    </edge>
    <edge id=":cross1_5" function="internal">
        <lane id=":cross1_5_0" index="0" speed="8.00" length="14.19" shape="10.40,1.60 6.55,2.15 3.80,3.80 2.15,6.55 1.60,10.40"/>
    </edge>
    <edge id=":cross1_6" function="internal">
        <lane id=":cross1_6_0" index="0" speed="13.89" length="20.80" shape="10.40,1.60 -10.40,1.60"/>
    </edge>
    <edge id=":cross1_7" function="internal">
        <lane id=":cross1_7_0" index="0" speed="9.26" length="6.96" shape="10.40,1.60 5.15,0.85 3.73,0.00"/>
    </edge>
    <edge id=":cross1_17" function="internal">
        <lane id=":cross1_17_0" index="0" speed="9.26" length="12.40" shape="3.73,0.00 1.40,-1.40 -0.85,-5.15 -1.60,-10.40"/>
    </edge>
    <edge id=":cross1_8" function="internal">
        <lane id=":cross1_8_0" index="0" speed="6.51" length="9.03" shape="4.80,-10.40 5.15,-7.95 6.20,-6.20 7.95,-5.15 10.40,-4.80"/>
    </edge>
    <edge id=":cross1_9" function="internal">
        <lane id=":cross1_9_0" index="0" speed="8.00" length="14.19" shape="1.60,-10.40 2.15,-6.55 3.80,-3.80 6.55,-2.15 10.40,-1.60"/>
    </edge>
    <edge id=":cross1_10" function="internal">
        <lane id=":cross1_10_0" index="0" speed="13.89" length="20.80" shape="1.60,-10.40 1.60,10.40"/>
    </edge>
    <edge id=":cross1_11" function="internal">
        <lane id=":cross1_11_0" index="0" speed="9.26" length="6.96" shape="1.60,-10.40 0.85,-5.15 0.00,-3.73"/>
    </edge>
    <edge id=":cross1_18" function="internal">
        <lane id=":cross1_18_0" index="0" speed="9.26" length="12.40" shape="0.00,-3.73 -1.40,-1.40 -5.15,0.85 -10.40,1.60"/>
    </edge>
    <edge id=":cross1_12" function="internal">
        <lane id=":cross1_12_0" index="0" speed="6.51" length="9.03" shape="-10.40,-4.80 -7.95,-5.15 -6.20,-6.20 -5.15,-7.95 -4.80,-10.40"/>
    </edge>
    <edge id=":cross1_13" function="internal">
        <lane id=":cross1_13_0" index="0" speed="8.00" length="14.19" shape="-10.40,-1.60 -6.55,-2.15 -3.80,-3.80 -2.15,-6.55 -1.60,-10.40"/>
    </edge>
    <edge id=":cross1_14" function="internal">
        <lane id=":cross1_14_0" index="0" speed="13.89" length="20.80" shape="-10.40,-1.60 10.40,-1.60"/>
    </edge>
    <edge id=":cross1_15" function="internal">
        <lane id=":cross1_15_0" index="0" speed="9.26" length="6.96" shape="-10.40,-1.60 -5.15,-0.85 -3.73,-0.00"/>
    </edge>
    <edge id=":cross1_19" function="internal">
        <lane id=":cross1_19_0" index="0" speed="9.26" length="12.40" shape="-3.73,-0.00 -1.40,1.40 0.85,5.15 1.60,10.40"/>
    </edge>
    <edge id=":cross2_0" function="internal">
        <lane id=":cross2_0_0" index="0" speed="6.51" length="9.03" shape="-4.80,210.40 -5.15,207.95 -6.20,206.20 -7.95,205.15 -10.40,204.80"/>
    </edge>
    <edge id=":cross2_1" function="internal">
        <lane id=":cross2_1_0" index="0" speed="8.00" length="14.19" shape="-1.60,210.40 -2.15,206.55 -3.80,203.80 -6.55,202.15 -10.40,201.60"/>
    </edge>
    <edge id=":cross2_2" function="internal">
        <lane id=":cross2_2_0" index="0" speed="13.89" length="20.80" shape="-1.60,210.40 -1.60,189.60"/>
    </edge>
    <edge id=":cross2_3" function="internal">
        <lane id=":cross2_3_0" index="0" speed="9.26" length="6.96" shape="-1.60,210.40 -0.85,205.15 -0.00,203.73"/>
    </edge>
    <edge id=":cross2_16" function="internal">
        <lane id=":cross2_16_0" index="0" speed="9.26" length="12.40" shape="-0.00,203.73 1.40,201.40 5.15,199.15 10.40,198.40"/>
    </edge>
    <edge id=":cross2_4" function="internal">
        <lane id=":cross2_4_0" index="0" speed="6.51" length="9.03" shape="10.40,204.80 7.95,205.15 6.20,206.20 5.15,207.95 4.80,210.40"/>
    </edge>
    <edge id=":cross2_5" function="internal">
        <lane id=":cross2_5_0" index="0" speed="8.00" length="14.19" shape="10.40,201.60 6.55,202.15 3.80,203.80 2.15,206.55 1.60,210.40"/>
    </edge>
    <edge id=":cross2_6" function="internal">
        <lane id=":cross2_6_0" index="0" speed="13.89" length="20.80" shape="10.40,201.60 -10.40,201.60"/>
    </edge>
    <edge id=":cross2_7" function="internal">
        <lane id=":cross2_7_0" index="0" speed="9.26" length="6.96" shape="10.40,201.60 5.15,200.85 3.73,200.00"/>
    </edge>
    <edge id=":cross2_17" function="internal">
        <lane id=":cross2_17_0" index="0" speed="9.26" length="12.40" shape="3.73,200.00 1.40,198.60 -0.85,194.85 -1.60,189.60"/>
    </edge>
    <edge id=":cross2_8" function="internal">
        <lane id=":cross2_8_0" index="0" speed="6.51" length="9.03" shape="4.80,189.60 5.15,192.05 6.20,193.80 7.95,194.85 10.40,195.20"/>
    </edge>
    <edge id=":cross2_9" function="internal">
        <lane id=":cross2_9_0" index="0" speed="8.00" length="14.19" shape="1.60,189.60 2.15,193.45 3.80,196.20 6.55,197.85 10.40,198.40"/>
    </edge>
    <edge id=":cross2_10" function="internal">
        <lane id=":cross2_10_0" index="0" speed="13.89" length="20.80" shape="1.60,189.60 1.60,210.40"/>
    </edge>
    <edge id=":cross2_11" function="internal">
        <lane id=":cross2_11_0" index="0" speed="9.26" length="6.96" shape="1.60,189.60 0.85,194.85 0.00,196.27"/>
    </edge>
    <edge id=":cross2_18" function="internal">
        <lane id=":cross2_18_0" index="0" speed="9.26" length="12.40" shape="0.00,196.27 -1.40,198.60 -5.15,200.85 -10.40,201.60"/>
    </edge>
    <edge id=":cross2_12" function="internal">
        <lane id=":cross2_12_0" index="0" speed="6.51" length="9.03" shape="-10.40,195.20 -7.95,194.85 -6.20,193.80 -5.15,192.05 -4.80,189.60"/>
    </edge>
    <edge id=":cross2_13" function="internal">
        <lane id=":cross2_13_0" index="0" speed="8.00" length="14.19" shape="-10.40,198.40 -6.55,197.85 -3.80,196.20 -2.15,193.45 -1.60,189.60"/>
    </edge>
    <edge id=":cross2_14" function="internal">
        <lane id=":cross2_14_0" index="0" speed="13.89" length="20.80" shape="-10.40,198.40 10.40,198.40"/>
    </edge>
    <edge id=":cross2_15" function="internal">
        <lane id=":cross2_15_0" index="0" speed="9.26" length="6.96" shape="-10.40,198.40 -5.15,199.15 -3.73,200.00"/>
    </edge>
    <edge id=":cross2_19" function="internal">
        <lane id=":cross2_19_0" index="0" speed="9.26" length="12.40" shape="-3.73,200.00 -1.40,201.40 0.85,205.15 1.60,210.40"/>
    </edge>
    <edge id=":cross3_0" function="internal">
        <lane id=":cross3_0_0" index="0" speed="6.51" length="9.03" shape="195.20,10.40 194.85,7.95 193.80,6.20 192.05,5.15 189.60,4.80"/>
    </edge>
    <edge id=":cross3_1" function="internal">
        <lane id=":cross3_1_0" index="0" speed="8.00" length="14.19" shape="198.40,10.40 197.85,6.55 196.20,3.80 193.45,2.15 189.60,1.60"/>
    </edge>
    <edge id=":cross3_2" function="internal">
        <lane id=":cross3_2_0" index="0" speed="13.89" length="20.80" shape="198.40,10.40 198.40,-10.40"/>
    </edge>
    <edge id=":cross3_3" function="internal">
        <lane id=":cross3_3_0" index="0" speed="9.26" length="6.96" shape="198.40,10.40 199.15,5.15 200.00,3.73"/>
    </edge>
    <edge id=":cross3_16" function="internal">
        <lane id=":cross3_16_0" index="0" speed="9.26" length="12.40" shape="200.00,3.73 201.40,1.40 205.15,-0.85 210.40,-1.60"/>
    </edge>
    <edge id=":cross3_4" function="internal">
        <lane id=":cross3_4_0" index="0" speed="6.51" length="9.03" shape="210.40,4.80 207.95,5.15 206.20,6.20 205.15,7.95 204.80,10.40"/>
    </edge>
    <edge id=":cross3_5" function="internal">
        <lane id=":cross3_5_0" index="0" speed="8.00" length="14.19" shape="210.40,1.60 206.55,2.15 203.80,3.80 202.15,6.55 201.60,10.40"/>
    </edge>
    <edge id=":cross3_6" function="internal">
        <lane id=":cross3_6_0" index="0" speed="13.89" length="20.80" shape="210.40,1.60 189.60,1.60"/>
    </edge>
    <edge id=":cross3_7" function="internal">
        <lane id=":cross3_7_0" index="0" speed="9.26" length="6.96" shape="210.40,1.60 205.15,0.85 203.73,0.00"/>
    </edge>
    <edge id=":cross3_17" function="internal">
        <lane id=":cross3_17_0" index="0" speed="9.26" length="12.40" shape="203.73,0.00 201.40,-1.40 199.15,-5.15 198.40,-10.40"/>
    </edge>
    <edge id=":cross3_8" function="internal">
        <lane id=":cross3_8_0" index="0" speed="6.51" length="9.03" shape="204.80,-10.40 205.15,-7.95 206.20,-6.20 207.95,-5.15 210.40,-4.80"/>
    </edge>
    <edge id=":cross3_9" function="internal">
        <lane id=":cross3_9_0" index="0" speed="8.00" length="14.19" shape="201.60,-10.40 202.15,-6.55 203.80,-3.80 206.55,-2.15 210.40,-1.60"/>
    </edge>
    <edge id=":cross3_10" function="internal">
        <lane id=":cross3_10_0" index="0" speed="13.89" length="20.80" shape="201.60,-10.40 201.60,10.40"/>
    </edge>
    <edge id=":cross3_11" function="internal">
        <lane id=":cross3_11_0" index="0" speed="9.26" length="6.96" shape="201.60,-10.40 200.85,-5.15 200.00,-3.73"/>
    </edge>
    <edge id=":cross3_18" function="internal">
        <lane id=":cross3_18_0" index="0" speed="9.26" length="12.40" shape="200.00,-3.73 198.60,-1.40 194.85,0.85 189.60,1.60"/>
    </edge>
    <edge id=":cross3_12" function="internal">
        <lane id=":cross3_12_0" index="0" speed="6.51" length="9.03" shape="189.60,-4.80 192.05,-5.15 193.80,-6.20 194.85,-7.95 195.20,-10.40"/>
    </edge>
    <edge id=":cross3_13" function="internal">
        <lane id=":cross3_13_0" index="0" speed="7.33" length="11.73" shape="189.60,-4.80 193.45,-5.15 196.20,-6.20 197.85,-7.95 198.40,-10.40"/>
    </edge>
    <edge id=":cross3_14" function="internal">
        <lane id=":cross3_14_0" index="0" speed="13.89" length="20.80" shape="189.60,-1.60 210.40,-1.60"/>
    </edge>
    <edge id=":cross3_15" function="internal">
        <lane id=":cross3_15_0" index="0" speed="9.26" length="6.96" shape="189.60,-1.60 194.85,-0.85 196.27,-0.00"/>
    </edge>
    <edge id=":cross3_19" function="internal">
        <lane id=":cross3_19_0" index="0" speed="9.26" length="12.40" shape="196.27,-0.00 198.60,1.40 200.85,5.15 201.60,10.40"/>
    </edge>
    <edge id=":cross4_0" function="internal">
        <lane id=":cross4_0_0" index="0" speed="6.51" length="9.03" shape="195.20,210.40 194.85,207.95 193.80,206.20 192.05,205.15 189.60,204.80"/>
    </edge>
    <edge id=":cross4_1" function="internal">
        <lane id=":cross4_1_0" index="0" speed="13.89" length="20.80" shape="195.20,210.40 195.20,189.60"/>
        <lane id=":cross4_1_1" index="1" speed="13.89" length="20.80" shape="198.40,210.40 198.40,189.60"/>
    </edge>
    <edge id=":cross4_3" function="internal">
        <lane id=":cross4_3_0" index="0" speed="9.26" length="6.96" shape="198.40,210.40 199.15,205.15 200.00,203.73"/>
    </edge>
    <edge id=":cross4_16" function="internal">
        <lane id=":cross4_16_0" index="0" speed="9.26" length="12.40" shape="200.00,203.73 201.40,201.40 205.15,199.15 210.40,198.40"/>
    </edge>
    <edge id=":cross4_4" function="internal">
        <lane id=":cross4_4_0" index="0" speed="6.51" length="9.03" shape="210.40,204.80 207.95,205.15 206.20,206.20 205.15,207.95 204.80,210.40"/>
    </edge>
    <edge id=":cross4_5" function="internal">
        <lane id=":cross4_5_0" index="0" speed="13.89" length="20.80" shape="210.40,204.80 189.60,204.80"/>
        <lane id=":cross4_5_1" index="1" speed="13.89" length="20.80" shape="210.40,201.60 189.60,201.60"/>
    </edge>
    <edge id=":cross4_7" function="internal">
        <lane id=":cross4_7_0" index="0" speed="9.26" length="6.96" shape="210.40,201.60 205.15,200.85 203.73,200.00"/>
    </edge>
    <edge id=":cross4_17" function="internal">
        <lane id=":cross4_17_0" index="0" speed="9.26" length="12.40" shape="203.73,200.00 201.40,198.60 199.15,194.85 198.40,189.60"/>
    </edge>
    <edge id=":cross4_8" function="internal">
        <lane id=":cross4_8_0" index="0" speed="6.51" length="9.03" shape="204.80,189.60 205.15,192.05 206.20,193.80 207.95,194.85 210.40,195.20"/>
    </edge>
    <edge id=":cross4_9" function="internal">
        <lane id=":cross4_9_0" index="0" speed="13.89" length="20.80" shape="204.80,189.60 204.80,210.40"/>
        <lane id=":cross4_9_1" index="1" speed="13.89" length="20.80" shape="201.60,189.60 201.60,210.40"/>
    </edge>
    <edge id=":cross4_11" function="internal">
        <lane id=":cross4_11_0" index="0" speed="9.26" length="6.96" shape="201.60,189.60 200.85,194.85 200.00,196.27"/>
    </edge>
    <edge id=":cross4_18" function="internal">
        <lane id=":cross4_18_0" index="0" speed="9.26" length="12.40" shape="200.00,196.27 198.60,198.60 194.85,200.85 189.60,201.60"/>
    </edge>
    <edge id=":cross4_12" function="internal">
        <lane id=":cross4_12_0" index="0" speed="6.51" length="9.03" shape="189.60,195.20 192.05,194.85 193.80,193.80 194.85,192.05 195.20,189.60"/>
    </edge>
    <edge id=":cross4_13" function="internal">
        <lane id=":cross4_13_0" index="0" speed="13.89" length="20.80" shape="189.60,195.20 210.40,195.20"/>
        <lane id=":cross4_13_1" index="1" speed="13.89" length="20.80" shape="189.60,198.40 210.40,198.40"/>
    </edge>
    <edge id=":cross4_15" function="internal">
        <lane id=":cross4_15_0" index="0" speed="9.26" length="6.96" shape="189.60,198.40 194.85,199.15 196.27,200.00"/>
    </edge>
    <edge id=":cross4_19" function="internal">
        <lane id=":cross4_19_0" index="0" speed="9.26" length="12.40" shape="196.27,200.00 198.60,201.40 200.85,205.15 201.60,210.40"/>
    </edge>
    <edge id=":ent9_0" function="internal">
        <lane id=":ent9_0_0" index="0" speed="13.89" length="14.40" shape="195.20,282.20 195.20,267.80"/>
        <lane id=":ent9_0_1" index="1" speed="13.89" length="14.40" shape="198.40,282.20 198.40,267.80"/>
    </edge>
    <edge id=":ent9_2" function="internal">
        <lane id=":ent9_2_0" index="0" speed="8.67" length="5.26" shape="198.40,282.20 199.15,278.35 200.00,277.31"/>
    </edge>
    <edge id=":ent9_8" function="internal">
        <lane id=":ent9_8_0" index="0" speed="8.67" length="11.59" shape="200.00,277.31 201.40,275.60 205.15,273.95 210.40,273.40"/>
    </edge>
    <edge id=":ent9_3" function="internal">
        <lane id=":ent9_3_0" index="0" speed="6.51" length="9.03" shape="210.40,276.60 207.95,276.95 206.20,278.00 205.15,279.75 204.80,282.20"/>
    </edge>
    <edge id=":ent9_4" function="internal">
        <lane id=":ent9_4_0" index="0" speed="8.67" length="16.85" shape="210.40,276.60 205.15,276.05 201.40,274.40 199.15,271.65 198.40,267.80"/>
    </edge>
    <edge id=":ent9_5" function="internal">
        <lane id=":ent9_5_0" index="0" speed="6.51" length="9.03" shape="204.80,267.80 205.15,270.25 206.20,272.00 207.95,273.05 210.40,273.40"/>
    </edge>
    <edge id=":ent9_6" function="internal">
        <lane id=":ent9_6_0" index="0" speed="13.89" length="14.40" shape="204.80,267.80 204.80,282.20"/>
        <lane id=":ent9_6_1" index="1" speed="13.89" length="14.40" shape="201.60,267.80 201.60,282.20"/>
    </edge>

    <edge id="-L1" from="cross1" to="cross2" priority="-1">
        <lane id="-L1_0" index="0" speed="13.89" length="179.20" shape="4.80,10.40 4.80,189.60"/>
        <lane id="-L1_1" index="1" speed="13.89" length="179.20" shape="1.60,10.40 1.60,189.60"/>
    </edge>
    <edge id="-L11" from="cross1" to="ent1" priority="-1">
        <lane id="-L11_0" index="0" speed="13.89" length="89.60" shape="-4.80,-10.40 -4.80,-100.00"/>
        <lane id="-L11_1" index="1" speed="13.89" length="89.60" shape="-1.60,-10.40 -1.60,-100.00"/>
    </edge>
    <edge id="-L12" from="ent2" to="cross1" priority="-1">
        <lane id="-L12_0" index="0" speed="13.89" length="89.60" shape="-100.00,-4.80 -10.40,-4.80"/>
        <lane id="-L12_1" index="1" speed="13.89" length="89.60" shape="-100.00,-1.60 -10.40,-1.60"/>
    </edge>
    <edge id="-L2" from="cross4" to="cross2" priority="-1">
        <lane id="-L2_0" index="0" speed="13.89" length="179.20" shape="189.60,204.80 10.40,204.80"/>
        <lane id="-L2_1" index="1" speed="13.89" length="179.20" shape="189.60,201.60 10.40,201.60"/>
    </edge>
    <edge id="-L23" from="cross2" to="ent3" priority="-1">
        <lane id="-L23_0" index="0" speed="13.89" length="89.60" shape="-10.40,204.80 -100.00,204.80"/>
        <lane id="-L23_1" index="1" speed="13.89" length="89.60" shape="-10.40,201.60 -100.00,201.60"/>
    </edge>
    <edge id="-L24" from="cross2" to="ent4" priority="-1">
        <lane id="-L24_0" index="0" speed="13.89" length="89.60" shape="4.80,210.40 4.80,300.00"/>
        <lane id="-L24_1" index="1" speed="13.89" length="89.60" shape="1.60,210.40 1.60,300.00"/>
    </edge>
    <edge id="-L3" from="cross3" to="cross4" priority="-1">
        <lane id="-L3_0" index="0" speed="13.89" length="179.20" shape="204.80,10.40 204.80,189.60"/>
        <lane id="-L3_1" index="1" speed="13.89" length="179.20" shape="201.60,10.40 201.60,189.60"/>
    </edge>
    <edge id="-L35" from="ent5" to="cross3" priority="-1">
        <lane id="-L35_0" index="0" speed="13.89" length="89.60" shape="204.80,-100.00 204.80,-10.40"/>
        <lane id="-L35_1" index="1" speed="13.89" length="89.60" shape="201.60,-100.00 201.60,-10.40"/>
    </edge>
    <edge id="-L36" from="ent6" to="cross3" priority="-1">
        <lane id="-L36_0" index="0" speed="13.89" length="89.60" shape="300.00,4.80 210.40,4.80"/>
        <lane id="-L36_1" index="1" speed="13.89" length="89.60" shape="300.00,1.60 210.40,1.60"/>
    </edge>
    <edge id="-L4" from="cross3" to="cross1" priority="-1">
        <lane id="-L4_0" index="0" speed="13.89" length="179.20" shape="189.60,4.80 10.40,4.80"/>
        <lane id="-L4_1" index="1" speed="13.89" length="179.20" shape="189.60,1.60 10.40,1.60"/>
    </edge>
    <edge id="-L47" from="ent7" to="cross4" priority="-1">
        <lane id="-L47_0" index="0" speed="13.89" length="89.60" shape="300.00,204.80 210.40,204.80"/>
        <lane id="-L47_1" index="1" speed="13.89" length="89.60" shape="300.00,201.60 210.40,201.60"/>
    </edge>
    <edge id="-L49" from="ent9" to="cross4" priority="-1">
        <lane id="-L49_0" index="0" speed="13.89" length="57.40" shape="195.20,267.80 195.20,210.40"/>
        <lane id="-L49_1" index="1" speed="13.89" length="57.40" shape="198.40,267.80 198.40,210.40"/>
    </edge>
    <edge id="-L98" from="ent8" to="ent9" priority="-1">
        <lane id="-L98_0" index="0" speed="13.89" length="17.80" shape="195.20,300.00 195.20,282.20"/>
        <lane id="-L98_1" index="1" speed="13.89" length="17.80" shape="198.40,300.00 198.40,282.20"/>
    </edge>
    <edge id="L0" from="ent00" to="ent9" priority="-1">
        <lane id="L0_0" index="0" speed="13.89" length="39.60" shape="250.00,276.60 210.40,276.60"/>
    </edge>
    <edge id="L00" from="ent9" to="ent00" priority="-1">
        <lane id="L00_0" index="0" speed="13.89" length="39.60" shape="210.40,273.40 250.00,273.40"/>
    </edge>
    <edge id="L1" from="cross2" to="cross1" priority="-1">
        <lane id="L1_0" index="0" speed="13.89" length="179.20" shape="-4.80,189.60 -4.80,10.40"/>
        <lane id="L1_1" index="1" speed="13.89" length="179.20" shape="-1.60,189.60 -1.60,10.40"/>
    </edge>
    <edge id="L11" from="ent1" to="cross1" priority="-1">
        <lane id="L11_0" index="0" speed="13.89" length="89.60" shape="4.80,-100.00 4.80,-10.40"/>
        <lane id="L11_1" index="1" speed="13.89" length="89.60" shape="1.60,-100.00 1.60,-10.40"/>
    </edge>
    <edge id="L12" from="cross1" to="ent2" priority="-1">
        <lane id="L12_0" index="0" speed="13.89" length="89.60" shape="-10.40,4.80 -100.00,4.80"/>
        <lane id="L12_1" index="1" speed="13.89" length="89.60" shape="-10.40,1.60 -100.00,1.60"/>
    </edge>
    <edge id="L2" from="cross2" to="cross4" priority="-1">
        <lane id="L2_0" index="0" speed="13.89" length="179.20" shape="10.40,195.20 189.60,195.20"/>
        <lane id="L2_1" index="1" speed="13.89" length="179.20" shape="10.40,198.40 189.60,198.40"/>
    </edge>
    <edge id="L23" from="ent3" to="cross2" priority="-1">
        <lane id="L23_0" index="0" speed="13.89" length="89.60" shape="-100.00,195.20 -10.40,195.20"/>
        <lane id="L23_1" index="1" speed="13.89" length="89.60" shape="-100.00,198.40 -10.40,198.40"/>
    </edge>
    <edge id="L24" from="ent4" to="cross2" priority="-1">
        <lane id="L24_0" index="0" speed="13.89" length="89.60" shape="-4.80,300.00 -4.80,210.40"/>
        <lane id="L24_1" index="1" speed="13.89" length="89.60" shape="-1.60,300.00 -1.60,210.40"/>
    </edge>
    <edge id="L3" from="cross4" to="cross3" priority="-1">
        <lane id="L3_0" index="0" speed="13.89" length="179.20" shape="195.20,189.60 195.20,10.40"/>
        <lane id="L3_1" index="1" speed="13.89" length="179.20" shape="198.40,189.60 198.40,10.40"/>
    </edge>
    <edge id="L35" from="cross3" to="ent5" priority="-1">
        <lane id="L35_0" index="0" speed="13.89" length="89.60" shape="195.20,-10.40 195.20,-100.00"/>
        <lane id="L35_1" index="1" speed="13.89" length="89.60" shape="198.40,-10.40 198.40,-100.00"/>
    </edge>
    <edge id="L36" from="cross3" to="ent6" priority="-1">
        <lane id="L36_0" index="0" speed="13.89" length="89.60" shape="210.40,-4.80 300.00,-4.80"/>
        <lane id="L36_1" index="1" speed="13.89" length="89.60" shape="210.40,-1.60 300.00,-1.60"/>
    </edge>
    <edge id="L4" from="cross1" to="cross3" priority="-1">
        <lane id="L4_0" index="0" speed="13.89" length="179.20" shape="10.40,-4.80 189.60,-4.80"/>
        <lane id="L4_1" index="1" speed="13.89" length="179.20" shape="10.40,-1.60 189.60,-1.60"/>
    </edge>
    <edge id="L47" from="cross4" to="ent7" priority="-1">
        <lane id="L47_0" index="0" speed="13.89" length="89.60" shape="210.40,195.20 300.00,195.20"/>
        <lane id="L47_1" index="1" speed="13.89" length="89.60" shape="210.40,198.40 300.00,198.40"/>
    </edge>
    <edge id="L49" from="cross4" to="ent9" priority="-1">
        <lane id="L49_0" index="0" speed="13.89" length="57.40" shape="204.80,210.40 204.80,267.80"/>
        <lane id="L49_1" index="1" speed="13.89" length="57.40" shape="201.60,210.40 201.60,267.80"/>
    </edge>
    <edge id="L98" from="ent9" to="ent8" priority="-1">
        <lane id="L98_0" index="0" speed="13.89" length="17.80" shape="204.80,282.20 204.80,300.00"/>
        <lane id="L98_1" index="1" speed="13.89" length="17.80" shape="201.60,282.20 201.60,300.00"/>
    </edge>

    <tlLogic id="cross1" type="static" programID="0" offset="0">
        <phase duration="42" state="GGGgrrrrGGGgrrrr"/>
        <phase duration="3"  state="yyyyrrrryyyyrrrr"/>
        <phase duration="42" state="rrrrGGGgrrrrGGGg"/>
        <phase duration="3"  state="rrrryyyyrrrryyyy"/>
    </tlLogic>
    <tlLogic id="cross2" type="static" programID="0" offset="0">
        <phase duration="42" state="GGGgrrrrGGGgrrrr"/>
        <phase duration="3"  state="yyyyrrrryyyyrrrr"/>
        <phase duration="42" state="rrrrGGGgrrrrGGGg"/>
        <phase duration="3"  state="rrrryyyyrrrryyyy"/>
    </tlLogic>
    <tlLogic id="cross3" type="static" programID="0" offset="0">
        <phase duration="42" state="GGGgrrrrGGGgrrrr"/>
        <phase duration="3"  state="yyyyrrrryyyyrrrr"/>
        <phase duration="42" state="rrrrGGGgrrrrGGGg"/>
        <phase duration="3"  state="rrrryyyyrrrryyyy"/>
    </tlLogic>
    <tlLogic id="cross4" type="static" programID="0" offset="0">
        <phase duration="42" state="GGGgrrrrGGGgrrrr"/>
        <phase duration="3"  state="yyyyrrrryyyyrrrr"/>
        <phase duration="42" state="rrrrGGGgrrrrGGGg"/>
        <phase duration="3"  state="rrrryyyyrrrryyyy"/>
    </tlLogic>

    <junction id="cross1" type="traffic_light" x="0.00" y="0.00" incLanes="L1_0 L1_1 -L4_0 -L4_1 L11_0 L11_1 -L12_0 -L12_1" intLanes=":cross1_0_0 :cross1_1_0 :cross1_2_0 :cross1_16_0 :cross1_4_0 :cross1_5_0 :cross1_6_0 :cross1_17_0 :cross1_8_0 :cross1_9_0 :cross1_10_0 :cross1_18_0 :cross1_12_0 :cross1_13_0 :cross1_14_0 :cross1_19_0" shape="-6.40,10.40 6.40,10.40 6.84,8.18 7.40,7.40 8.18,6.84 9.18,6.51 10.40,6.40 10.40,-6.40 8.18,-6.84 7.40,-7.40 6.84,-8.18 6.51,-9.18 6.40,-10.40 -6.40,-10.40 -6.84,-8.18 -7.40,-7.40 -8.18,-6.84 -9.18,-6.51 -10.40,-6.40 -10.40,6.40 -8.18,6.84 -7.40,7.40 -6.84,8.18 -6.51,9.18">
        <request index="0"  response="0000000000000000" foes="0000100001000000" cont="0"/>
        <request index="1"  response="0000000000000000" foes="0000100001000000" cont="0"/>
        <request index="2"  response="1000000010000000" foes="1111100011000000" cont="0"/>
        <request index="3"  response="1000011110000000" foes="1100011111000000" cont="1"/>
        <request index="4"  response="0000010000000000" foes="1000010000000000" cont="0"/>
        <request index="5"  response="0000010000000000" foes="1000010000000000" cont="0"/>
        <request index="6"  response="0000110000001111" foes="1000110000001111" cont="0"/>
        <request index="7"  response="0111110000001100" foes="0111110000001100" cont="1"/>
        <request index="8"  response="0000000000000000" foes="0100000000001000" cont="0"/>
        <request index="9"  response="0000000000000000" foes="0100000000001000" cont="0"/>
        <request index="10" response="1000000010000000" foes="1100000011111000" cont="0"/>
        <request index="11" response="1000000010000111" foes="1100000011000111" cont="1"/>
        <request index="12" response="0000000000000100" foes="0000000010000100" cont="0"/>
        <request index="13" response="0000000000000100" foes="0000000010000100" cont="0"/>
        <request index="14" response="0000111100001100" foes="0000111110001100" cont="0"/>
        <request index="15" response="0000110001111100" foes="0000110001111100" cont="1"/>
    </junction>
    <junction id="cross2" type="traffic_light" x="0.00" y="200.00" incLanes="L24_0 L24_1 -L2_0 -L2_1 -L1_0 -L1_1 L23_0 L23_1" intLanes=":cross2_0_0 :cross2_1_0 :cross2_2_0 :cross2_16_0 :cross2_4_0 :cross2_5_0 :cross2_6_0 :cross2_17_0 :cross2_8_0 :cross2_9_0 :cross2_10_0 :cross2_18_0 :cross2_12_0 :cross2_13_0 :cross2_14_0 :cross2_19_0" shape="-6.40,210.40 6.40,210.40 6.84,208.18 7.40,207.40 8.18,206.84 9.18,206.51 10.40,206.40 10.40,193.60 8.18,193.16 7.40,192.60 6.84,191.82 6.51,190.82 6.40,189.60 -6.40,189.60 -6.84,191.82 -7.40,192.60 -8.18,193.16 -9.18,193.49 -10.40,193.60 -10.40,206.40 -8.18,206.84 -7.40,207.40 -6.84,208.18 -6.51,209.18">
        <request index="0"  response="0000000000000000" foes="0000100001000000" cont="0"/>
        <request index="1"  response="0000000000000000" foes="0000100001000000" cont="0"/>
        <request index="2"  response="1000000010000000" foes="1111100011000000" cont="0"/>
        <request index="3"  response="1000011110000000" foes="1100011111000000" cont="1"/>
        <request index="4"  response="0000010000000000" foes="1000010000000000" cont="0"/>
        <request index="5"  response="0000010000000000" foes="1000010000000000" cont="0"/>
        <request index="6"  response="0000110000001111" foes="1000110000001111" cont="0"/>
        <request index="7"  response="0111110000001100" foes="0111110000001100" cont="1"/>
        <request index="8"  response="0000000000000000" foes="0100000000001000" cont="0"/>
        <request index="9"  response="0000000000000000" foes="0100000000001000" cont="0"/>
        <request index="10" response="1000000010000000" foes="1100000011111000" cont="0"/>
        <request index="11" response="1000000010000111" foes="1100000011000111" cont="1"/>
        <request index="12" response="0000000000000100" foes="0000000010000100" cont="0"/>