<?xml version="1.0" encoding="UTF-8"?>

<routes>
  <vType accel="10000.0" decel="10000.0" id="carA" type="passenger" length="5.0" minGap="0.0" maxSpeed="100.0" sigma="0.5" />
  <vType accel="10000.0" decel="10000.0" id="EmergencyVehicle" type="emergency" length="7.0" minGap="0.0" maxSpeed="100.0" sigma="0.5" />



  <!-- <flow id="carflow1" type="carA" beg="0" end="0" number="3" from="L11" to="L98" color="0,1,0" />
  <flow id="carflow2" type="carA" beg="0" end="0" number="3" from="-L12" to="L36" color="1,1,0" />
  <flow id="carflow3" type="carA" beg="0" end="0" number="3" from="L23" to="L47" color="1,1,0"/>
  <flow id="carflow4" type="carA" beg="0" end="0" number="3" from="L24" to="L36" color="1,1,0"/>

  <flow id="carflow5" type="carA" beg="0" end="0" number="3" from="-L98" to="-L11" color="1,0,0"/>
  <flow id="carflow6" type="carA" beg="0" end="0" number="3" froms="-L47" to=" L12" color="1,0,0"/>
  <flow id="carflow7" type="carA" beg="0" end="0" number="3" from="-L36" to="-L24" color="1,0,0"/>
  <flow id="carflow8" type="carA" beg="0" end="0" number="3" from="-L35" to=" -L23" color="1,0,0"/>
  
  
  
  <flow id="carflow11" type="carA" beg="0" end="75" number="12" from="L11" to="L98" color="0,1,0" />
  <flow id="carflow22" type="carA" beg="0" end="75" number="7" from="-L12" to="L36" color="1,1,0" />
  <flow id="carflow33" type="carA" beg="0" end="75" number="12" from="L23" to="L47" color="1,1,0"/>
  <flow id="carflow44" type="carA" beg="0" end="75" number="12" from="L24" to="L36" color="1,1,0"/>

  <flow id="carflow55" type="carA" beg="0" end="75" number="12" from="-L98" to="-L11" color="1,0,0"/>
  <flow id="carflow66" type="carA" beg="0" end="75" number="12" froms="-L47" to=" L12" color="1,0,0"/>
  <flow id="carflow77" type="carA" beg="0" end="75" number="12" from="-L36" to="-L24" color="1,0,0"/>
  <flow id="carflow88" type="carA" beg="0" end="75" number="12" from="-L35" to=" -L23" color="1,0,0"/>
  <flow id="carflow00" type="carA" beg="0" end="75" number="12" from="-L35" to="L47" color="1,1,0"/> -->
  
  
  <trip id="ev" type="EmergencyVehicle" depart="0.5" from="L11" to="L00" via="L4 -L3 L49" color="0,1,1"/>
  
  </routes>


