<?xml version="1.0" encoding="UTF-8"?>

<!-- generated on 01/13/22 13:55:59 by Eclipse SUMO netedit Version 1.8.0
<configuration xmlns:xsi="http://www.w3.org/2001/XMLSchema-instance" xsi:noNamespaceSchemaLocation="http://sumo.dlr.de/xsd/netconvertConfiguration.xsd">

    <output>
        <output-file value="D:\SUMO-Map\sumomap.net.xml"/>
    </output>

    <processing>
        <offset.disable-normalization value="true"/>
    </processing>

    <junctions>
        <no-turnarounds value="true"/>
    </junctions>

    <report>
        <aggregate-warnings value="5"/>
    </report>

</configuration>
-->

<additional xmlns:xsi="http://www.w3.org/2001/XMLSchema-instance" xsi:noNamespaceSchemaLocation="http://sumo.dlr.de/xsd/additional_file.xsd">
    <tlLogic id="cross1" type="static" programID="ud" offset="0">
        <phase duration="5" state="GGGgrrrrGGGgrrrr"/>
        <phase duration="45" state="rrrrGGGgrrrrGGGg"/>
    </tlLogic>
    <tlLogic id="cross2" type="static" programID="ud" offset="0">
        <phase duration="45" state="GGGgrrrrGGGgrrrr"/>
        <phase duration="45" state="rrrrGGGgrrrrGGGg"/>
    </tlLogic>
    <tlLogic id="cross3" type="static" programID="ud" offset="0">
        <phase duration="45" state="GGGgrrrrGGGgrrrr"/>
        <phase duration="45" state="rrrrGGGgrrrrGGGg"/>
    </tlLogic>
    <tlLogic id="cross4" type="static" programID="ud" offset="0">
        <phase duration="45" state="GGGgrrrrGGGgrrrr"/>
        <phase duration="45" state="rrrrGGGgrrrrGGGg"/>
    </tlLogic>
</additional>
