<?xml version="1.0" encoding="UTF-8"?>


<routes>
   <vType id="car" type="passenger" length="5" accel="3.5" decel="2.2" sigma="1.0"/>
   <flow id="carflow1" type="car" beg="0" end="0" number="10" from="edge1_i" to="edge12_o"/>
   <flow id="carflow2" type="car" beg="0" end="0" number="10" from="edge2_i" to="edge11_o"/>
   <flow id="carflow3" type="car" beg="0" end="0" number="10" from="edge3_i" to="edge10_o"/>
   <flow id="carflow4" type="car" beg="0" end="0" number="10" from="edge4_i" to="edge9_o"/>
   
   <flow id="carflow5" type="car" beg="0" end="0" number="10" from="edge5_i" to="edge16_o"/>
   <flow id="carflow6" type="car" beg="0" end="0" number="10" from="edge6_i" to="edge15_o"/>
   <flow id="carflow7" type="car" beg="0" end="0" number="10" from="edge7_i" to="edge14_o"/>
   <flow id="carflow8" type="car" beg="0" end="0" number="10" from="edge8_i" to="edge13_o"/>
   
   <flow id="carflow9" type="car" beg="0" end="0" number="10" from="edge9_i" to="edge4_o"/>
   <flow id="carflow10" type="car" beg="0" end="0" number="10" from="edge10_i" to="edge3_o"/>
   <flow id="carflow11" type="car" beg="0" end="0" number="10" from="edge11_i" to="edge2_o"/>
   <flow id="carflow12" type="car" beg="0" end="0" number="10" from="edge12_i" to="edge1_o"/>
   
   <flow id="carflow13" type="car" beg="0" end="0" number="10" from="edge13_i" to="edge8_o"/>
   <flow id="carflow14" type="car" beg="0" end="0" number="10" from="edge14_i" to="edge7_o"/>
   <flow id="carflow15" type="car" beg="0" end="0" number="10" from="edge15_i" to="edge6_o"/>
   <flow id="carflow16" type="car" beg="0" end="0" number="10" from="edge16_i" to="edge5_o"/>
</routes>

