<?xml version="1.0" encoding="UTF-8"?>

<!-- generated on 2021-07-08 09:33:57 by Eclipse SUMO netedit Version v1_9_2+0321-d37bbf0ca9
<configuration xmlns:xsi="http://www.w3.org/2001/XMLSchema-instance" xsi:noNamespaceSchemaLocation="http://sumo.dlr.de/xsd/netconvertConfiguration.xsd">

    <input>
        <sumo-net-file value="/home/sangyoung/src/omnetpp-5.6.2/samples/traffic_light_example/traffic_light_example.net.xml"/>
    </input>

    <output>
        <output-file value="/home/sangyoung/src/omnetpp-5.6.2/samples/traffic_light_example/traffic_light_example.net.xml"/>
    </output>

    <processing>
        <geometry.min-radius.fix.railways value="false"/>
        <geometry.max-grade.fix value="false"/>
        <offset.disable-normalization value="true"/>
        <lefthand value="false"/>
    </processing>

    <junctions>
        <no-turnarounds value="true"/>
        <junctions.corner-detail value="5"/>
        <junctions.limit-turn-speed value="5.5"/>
        <rectangular-lane-cut value="false"/>
    </junctions>

    <pedestrian>
        <walkingareas value="false"/>
    </pedestrian>

    <report>
        <aggregate-warnings value="5"/>
    </report>

</configuration>
-->

<net version="1.9" junctionCornerDetail="5" limitTurnSpeed="5.50" xmlns:xsi="http://www.w3.org/2001/XMLSchema-instance" xsi:noNamespaceSchemaLocation="http://sumo.dlr.de/xsd/net_file.xsd">

    <location netOffset="0.00,0.00" convBoundary="0.00,-800.00,4000.00,3200.00" origBoundary="-10000000000.00,-10000000000.00,10000000000.00,10000000000.00" projParameter="!"/>

    <edge id=":j1_0" function="internal">
        <lane id=":j1_0_0" index="0" speed="6.51" length="9.03" shape="798.40,2407.20 798.05,2404.75 797.00,2403.00 795.25,2401.95 792.80,2401.60"/>
    </edge>
    <edge id=":j1_1" function="internal">
        <lane id=":j1_1_0" index="0" speed="13.89" length="14.40" shape="798.40,2407.20 798.40,2392.80"/>
    </edge>
    <edge id=":j1_2" function="internal">
        <lane id=":j1_2_0" index="0" speed="8.00" length="5.93" shape="798.40,2407.20 798.95,2403.35 800.00,2401.60"/>
    </edge>
    <edge id=":j1_12" function="internal">
        <lane id=":j1_12_0" index="0" speed="8.00" length="8.26" shape="800.00,2401.60 800.60,2400.60 803.35,2398.95 807.20,2398.40"/>
    </edge>
    <edge id=":j1_3" function="internal">
        <lane id=":j1_3_0" index="0" speed="6.51" length="9.03" shape="807.20,2401.60 804.75,2401.95 803.00,2403.00 801.95,2404.75 801.60,2407.20"/>
    </edge>
    <edge id=":j1_4" function="internal">
        <lane id=":j1_4_0" index="0" speed="13.89" length="14.40" shape="807.20,2401.60 792.80,2401.60"/>
    </edge>
    <edge id=":j1_5" function="internal">
        <lane id=":j1_5_0" index="0" speed="8.00" length="5.93" shape="807.20,2401.60 803.35,2401.05 801.60,2400.00"/>
    </edge>
    <edge id=":j1_13" function="internal">
        <lane id=":j1_13_0" index="0" speed="8.00" length="8.26" shape="801.60,2400.00 800.60,2399.40 798.95,2396.65 798.40,2392.80"/>
    </edge>
    <edge id=":j1_6" function="internal">
        <lane id=":j1_6_0" index="0" speed="6.51" length="9.03" shape="801.60,2392.80 801.95,2395.25 803.00,2397.00 804.75,2398.05 807.20,2398.40"/>
    </edge>
    <edge id=":j1_7" function="internal">
        <lane id=":j1_7_0" index="0" speed="13.89" length="14.40" shape="801.60,2392.80 801.60,2407.20"/>
    </edge>
    <edge id=":j1_8" function="internal">
        <lane id=":j1_8_0" index="0" speed="8.00" length="5.93" shape="801.60,2392.80 801.05,2396.65 800.00,2398.40"/>
    </edge>
    <edge id=":j1_14" function="internal">
        <lane id=":j1_14_0" index="0" speed="8.00" length="8.26" shape="800.00,2398.40 799.40,2399.40 796.65,2401.05 792.80,2401.60"/>
    </edge>
    <edge id=":j1_9" function="internal">
        <lane id=":j1_9_0" index="0" speed="6.51" length="9.03" shape="792.80,2398.40 795.25,2398.05 797.00,2397.00 798.05,2395.25 798.40,2392.80"/>
    </edge>
    <edge id=":j1_10" function="internal">
        <lane id=":j1_10_0" index="0" speed="13.89" length="14.40" shape="792.80,2398.40 807.20,2398.40"/>
    </edge>
    <edge id=":j1_11" function="internal">
        <lane id=":j1_11_0" index="0" speed="8.00" length="5.93" shape="792.80,2398.40 796.65,2398.95 798.40,2400.00"/>
    </edge>
    <edge id=":j1_15" function="internal">
        <lane id=":j1_15_0" index="0" speed="8.00" length="8.26" shape="798.40,2400.00 799.40,2400.60 801.05,2403.35 801.60,2407.20"/>
    </edge>
    <edge id=":j10_0" function="internal">
        <lane id=":j10_0_0" index="0" speed="6.51" length="9.03" shape="1598.40,807.20 1598.05,804.75 1597.00,803.00 1595.25,801.95 1592.80,801.60"/>
    </edge>
    <edge id=":j10_1" function="internal">
        <lane id=":j10_1_0" index="0" speed="13.89" length="14.40" shape="1598.40,807.20 1598.40,792.80"/>
    </edge>
    <edge id=":j10_2" function="internal">
        <lane id=":j10_2_0" index="0" speed="8.00" length="5.93" shape="1598.40,807.20 1598.95,803.35 1600.00,801.60"/>
    </edge>
    <edge id=":j10_12" function="internal">
        <lane id=":j10_12_0" index="0" speed="8.00" length="8.26" shape="1600.00,801.60 1600.60,800.60 1603.35,798.95 1607.20,798.40"/>
    </edge>
    <edge id=":j10_3" function="internal">
        <lane id=":j10_3_0" index="0" speed="6.51" length="9.03" shape="1607.20,801.60 1604.75,801.95 1603.00,803.00 1601.95,804.75 1601.60,807.20"/>
    </edge>
    <edge id=":j10_4" function="internal">
        <lane id=":j10_4_0" index="0" speed="13.89" length="14.40" shape="1607.20,801.60 1592.80,801.60"/>
    </edge>
    <edge id=":j10_5" function="internal">
        <lane id=":j10_5_0" index="0" speed="8.00" length="5.93" shape="1607.20,801.60 1603.35,801.05 1601.60,800.00"/>
    </edge>
    <edge id=":j10_13" function="internal">
        <lane id=":j10_13_0" index="0" speed="8.00" length="8.26" shape="1601.60,800.00 1600.60,799.40 1598.95,796.65 1598.40,792.80"/>
    </edge>
    <edge id=":j10_6" function="internal">
        <lane id=":j10_6_0" index="0" speed="6.51" length="9.03" shape="1601.60,792.80 1601.95,795.25 1603.00,797.00 1604.75,798.05 1607.20,798.40"/>
    </edge>
    <edge id=":j10_7" function="internal">
        <lane id=":j10_7_0" index="0" speed="13.89" length="14.40" shape="1601.60,792.80 1601.60,807.20"/>
    </edge>
    <edge id=":j10_8" function="internal">
        <lane id=":j10_8_0" index="0" speed="8.00" length="5.93" shape="1601.60,792.80 1601.05,796.65 1600.00,798.40"/>
    </edge>
    <edge id=":j10_14" function="internal">
        <lane id=":j10_14_0" index="0" speed="8.00" length="8.26" shape="1600.00,798.40 1599.40,799.40 1596.65,801.05 1592.80,801.60"/>
    </edge>
    <edge id=":j10_9" function="internal">
        <lane id=":j10_9_0" index="0" speed="6.51" length="9.03" shape="1592.80,798.40 1595.25,798.05 1597.00,797.00 1598.05,795.25 1598.40,792.80"/>
    </edge>
    <edge id=":j10_10" function="internal">
        <lane id=":j10_10_0" index="0" speed="13.89" length="14.40" shape="1592.80,798.40 1607.20,798.40"/>
    </edge>
    <edge id=":j10_11" function="internal">
        <lane id=":j10_11_0" index="0" speed="8.00" length="5.93" shape="1592.80,798.40 1596.65,798.95 1598.40,800.00"/>
    </edge>
    <edge id=":j10_15" function="internal">
        <lane id=":j10_15_0" index="0" speed="8.00" length="8.26" shape="1598.40,800.00 1599.40,800.60 1601.05,803.35 1601.60,807.20"/>
    </edge>
    <edge id=":j11_0" function="internal">
        <lane id=":j11_0_0" index="0" speed="6.51" length="9.03" shape="2398.40,807.20 2398.05,804.75 2397.00,803.00 2395.25,801.95 2392.80,801.60"/>
    </edge>
    <edge id=":j11_1" function="internal">
        <lane id=":j11_1_0" index="0" speed="13.89" length="14.40" shape="2398.40,807.20 2398.40,792.80"/>
    </edge>
    <edge id=":j11_2" function="internal">
        <lane id=":j11_2_0" index="0" speed="8.00" length="5.93" shape="2398.40,807.20 2398.95,803.35 2400.00,801.60"/>
    </edge>
    <edge id=":j11_12" function="internal">
        <lane id=":j11_12_0" index="0" speed="8.00" length="8.26" shape="2400.00,801.60 2400.60,800.60 2403.35,798.95 2407.20,798.40"/>
    </edge>
    <edge id=":j11_3" function="internal">
        <lane id=":j11_3_0" index="0" speed="6.51" length="9.03" shape="2407.20,801.60 2404.75,801.95 2403.00,803.00 2401.95,804.75 2401.60,807.20"/>
    </edge>
    <edge id=":j11_4" function="internal">
        <lane id=":j11_4_0" index="0" speed="13.89" length="14.40" shape="2407.20,801.60 2392.80,801.60"/>
    </edge>
    <edge id=":j11_5" function="internal">
        <lane id=":j11_5_0" index="0" speed="8.00" length="5.93" shape="2407.20,801.60 2403.35,801.05 2401.60,800.00"/>
    </edge>
    <edge id=":j11_13" function="internal">
        <lane id=":j11_13_0" index="0" speed="8.00" length="8.26" shape="2401.60,800.00 2400.60,799.40 2398.95,796.65 2398.40,792.80"/>
    </edge>
    <edge id=":j11_6" function="internal">
        <lane id=":j11_6_0" index="0" speed="6.51" length="9.03" shape="2401.60,792.80 2401.95,795.25 2403.00,797.00 2404.75,798.05 2407.20,798.40"/>
    </edge>
    <edge id=":j11_7" function="internal">
        <lane id=":j11_7_0" index="0" speed="13.89" length="14.40" shape="2401.60,792.80 2401.60,807.20"/>
    </edge>
    <edge id=":j11_8" function="internal">
        <lane id=":j11_8_0" index="0" speed="8.00" length="5.93" shape="2401.60,792.80 2401.05,796.65 2400.00,798.40"/>
    </edge>
    <edge id=":j11_14" function="internal">
        <lane id=":j11_14_0" index="0" speed="8.00" length="8.26" shape="2400.00,798.40 2399.40,799.40 2396.65,801.05 2392.80,801.60"/>
    </edge>
    <edge id=":j11_9" function="internal">
        <lane id=":j11_9_0" index="0" speed="6.51" length="9.03" shape="2392.80,798.40 2395.25,798.05 2397.00,797.00 2398.05,795.25 2398.40,792.80"/>
    </edge>
    <edge id=":j11_10" function="internal">
        <lane id=":j11_10_0" index="0" speed="13.89" length="14.40" shape="2392.80,798.40 2407.20,798.40"/>
    </edge>
    <edge id=":j11_11" function="internal">
        <lane id=":j11_11_0" index="0" speed="8.00" length="5.93" shape="2392.80,798.40 2396.65,798.95 2398.40,800.00"/>
    </edge>
    <edge id=":j11_15" function="internal">
        <lane id=":j11_15_0" index="0" speed="8.00" length="8.26" shape="2398.40,800.00 2399.40,800.60 2401.05,803.35 2401.60,807.20"/>
    </edge>
    <edge id=":j12_0" function="internal">
        <lane id=":j12_0_0" index="0" speed="6.51" length="9.03" shape="3198.40,807.20 3198.05,804.75 3197.00,803.00 3195.25,801.95 3192.80,801.60"/>
    </edge>
    <edge id=":j12_1" function="internal">
        <lane id=":j12_1_0" index="0" speed="13.89" length="14.40" shape="3198.40,807.20 3198.40,792.80"/>
    </edge>
    <edge id=":j12_2" function="internal">
        <lane id=":j12_2_0" index="0" speed="8.00" length="5.93" shape="3198.40,807.20 3198.95,803.35 3200.00,801.60"/>
    </edge>
    <edge id=":j12_12" function="internal">
        <lane id=":j12_12_0" index="0" speed="8.00" length="8.26" shape="3200.00,801.60 3200.60,800.60 3203.35,798.95 3207.20,798.40"/>
    </edge>
    <edge id=":j12_3" function="internal">
        <lane id=":j12_3_0" index="0" speed="6.51" length="9.03" shape="3207.20,801.60 3204.75,801.95 3203.00,803.00 3201.95,804.75 3201.60,807.20"/>
    </edge>
    <edge id=":j12_4" function="internal">
        <lane id=":j12_4_0" index="0" speed="13.89" length="14.40" shape="3207.20,801.60 3192.80,801.60"/>
    </edge>
    <edge id=":j12_5" function="internal">
        <lane id=":j12_5_0" index="0" speed="8.00" length="5.93" shape="3207.20,801.60 3203.35,801.05 3201.60,800.00"/>
    </edge>
    <edge id=":j12_13" function="internal">
        <lane id=":j12_13_0" index="0" speed="8.00" length="8.26" shape="3201.60,800.00 3200.60,799.40 3198.95,796.65 3198.40,792.80"/>
    </edge>
    <edge id=":j12_6" function="internal">
        <lane id=":j12_6_0" index="0" speed="6.51" length="9.03" shape="3201.60,792.80 3201.95,795.25 3203.00,797.00 3204.75,798.05 3207.20,798.40"/>
    </edge>
    <edge id=":j12_7" function="internal">
        <lane id=":j12_7_0" index="0" speed="13.89" length="14.40" shape="3201.60,792.80 3201.60,807.20"/>
    </edge>
    <edge id=":j12_8" function="internal">
        <lane id=":j12_8_0" index="0" speed="8.00" length="5.93" shape="3201.60,792.80 3201.05,796.65 3200.00,798.40"/>
    </edge>
    <edge id=":j12_14" function="internal">
        <lane id=":j12_14_0" index="0" speed="8.00" length="8.26" shape="3200.00,798.40 3199.40,799.40 3196.65,801.05 3192.80,801.60"/>
    </edge>
    <edge id=":j12_9" function="internal">
        <lane id=":j12_9_0" index="0" speed="6.51" length="9.03" shape="3192.80,798.40 3195.25,798.05 3197.00,797.00 3198.05,795.25 3198.40,792.80"/>
    </edge>
    <edge id=":j12_10" function="internal">
        <lane id=":j12_10_0" index="0" speed="13.89" length="14.40" shape="3192.80,798.40 3207.20,798.40"/>
    </edge>
    <edge id=":j12_11" function="internal">
        <lane id=":j12_11_0" index="0" speed="8.00" length="5.93" shape="3192.80,798.40 3196.65,798.95 3198.40,800.00"/>
    </edge>
    <edge id=":j12_15" function="internal">
        <lane id=":j12_15_0" index="0" speed="8.00" length="8.26" shape="3198.40,800.00 3199.40,800.60 3201.05,803.35 3201.60,807.20"/>
    </edge>
    <edge id=":j13_0" function="internal">
        <lane id=":j13_0_0" index="0" speed="6.51" length="9.03" shape="798.40,7.20 798.05,4.75 797.00,3.00 795.25,1.95 792.80,1.60"/>
    </edge>
    <edge id=":j13_1" function="internal">
        <lane id=":j13_1_0" index="0" speed="13.89" length="14.40" shape="798.40,7.20 798.40,-7.20"/>
    </edge>
    <edge id=":j13_2" function="internal">
        <lane id=":j13_2_0" index="0" speed="8.00" length="5.93" shape="798.40,7.20 798.95,3.35 800.00,1.60"/>
    </edge>
    <edge id=":j13_12" function="internal">
        <lane id=":j13_12_0" index="0" speed="8.00" length="8.26" shape="800.00,1.60 800.60,0.60 803.35,-1.05 807.20,-1.60"/>
    </edge>
    <edge id=":j13_3" function="internal">
        <lane id=":j13_3_0" index="0" speed="6.51" length="9.03" shape="807.20,1.60 804.75,1.95 803.00,3.00 801.95,4.75 801.60,7.20"/>
    </edge>
    <edge id=":j13_4" function="internal">
        <lane id=":j13_4_0" index="0" speed="13.89" length="14.40" shape="807.20,1.60 792.80,1.60"/>
    </edge>
    <edge id=":j13_5" function="internal">
        <lane id=":j13_5_0" index="0" speed="8.00" length="5.93" shape="807.20,1.60 803.35,1.05 801.60,-0.00"/>
    </edge>
    <edge id=":j13_13" function="internal">
        <lane id=":j13_13_0" index="0" speed="8.00" length="8.26" shape="801.60,-0.00 800.60,-0.60 798.95,-3.35 798.40,-7.20"/>
    </edge>
    <edge id=":j13_6" function="internal">
        <lane id=":j13_6_0" index="0" speed="6.51" length="9.03" shape="801.60,-7.20 801.95,-4.75 803.00,-3.00 804.75,-1.95 807.20,-1.60"/>
    </edge>
    <edge id=":j13_7" function="internal">
        <lane id=":j13_7_0" index="0" speed="13.89" length="14.40" shape="801.60,-7.20 801.60,7.20"/>
    </edge>
    <edge id=":j13_8" function="internal">
        <lane id=":j13_8_0" index="0" speed="8.00" length="5.93" shape="801.60,-7.20 801.05,-3.35 800.00,-1.60"/>
    </edge>
    <edge id=":j13_14" function="internal">
        <lane id=":j13_14_0" index="0" speed="8.00" length="8.26" shape="800.00,-1.60 799.40,-0.60 796.65,1.05 792.80,1.60"/>
    </edge>
    <edge id=":j13_9" function="internal">
        <lane id=":j13_9_0" index="0" speed="6.51" length="9.03" shape="792.80,-1.60 795.25,-1.95 797.00,-3.00 798.05,-4.75 798.40,-7.20"/>
    </edge>
    <edge id=":j13_10" function="internal">
        <lane id=":j13_10_0" index="0" speed="13.89" length="14.40" shape="792.80,-1.60 807.20,-1.60"/>
    </edge>
    <edge id=":j13_11" function="internal">
        <lane id=":j13_11_0" index="0" speed="8.00" length="5.93" shape="792.80,-1.60 796.65,-1.05 798.40,0.00"/>
    </edge>
    <edge id=":j13_15" function="internal">
        <lane id=":j13_15_0" index="0" speed="8.00" length="8.26" shape="798.40,0.00 799.40,0.60 801.05,3.35 801.60,7.20"/>
    </edge>
    <edge id=":j14_0" function="internal">
        <lane id=":j14_0_0" index="0" speed="6.51" length="9.03" shape="1598.40,7.20 1598.05,4.75 1597.00,3.00 1595.25,1.95 1592.80,1.60"/>
    </edge>
    <edge id=":j14_1" function="internal">
        <lane id=":j14_1_0" index="0" speed="13.89" length="14.40" shape="1598.40,7.20 1598.40,-7.20"/>
    </edge>
    <edge id=":j14_2" function="internal">
        <lane id=":j14_2_0" index="0" speed="8.00" length="5.93" shape="1598.40,7.20 1598.95,3.35 1600.00,1.60"/>
    </edge>
    <edge id=":j14_12" function="internal">
        <lane id=":j14_12_0" index="0" speed="8.00" length="8.26" shape="1600.00,1.60 1600.60,0.60 1603.35,-1.05 1607.20,-1.60"/>
    </edge>
    <edge id=":j14_3" function="internal">
        <lane id=":j14_3_0" index="0" speed="6.51" length="9.03" shape="1607.20,1.60 1604.75,1.95 1603.00,3.00 1601.95,4.75 1601.60,7.20"/>
    </edge>
    <edge id=":j14_4" function="internal">
        <lane id=":j14_4_0" index="0" speed="13.89" length="14.40" shape="1607.20,1.60 1592.80,1.60"/>
    </edge>
    <edge id=":j14_5" function="internal">
        <lane id=":j14_5_0" index="0" speed="8.00" length="5.93" shape="1607.20,1.60 1603.35,1.05 1601.60,-0.00"/>
    </edge>
    <edge id=":j14_13" function="internal">
        <lane id=":j14_13_0" index="0" speed="8.00" length="8.26" shape="1601.60,-0.00 1600.60,-0.60 1598.95,-3.35 1598.40,-7.20"/>
    </edge>
    <edge id=":j14_6" function="internal">
        <lane id=":j14_6_0" index="0" speed="6.51" length="9.03" shape="1601.60,-7.20 1601.95,-4.75 1603.00,-3.00 1604.75,-1.95 1607.20,-1.60"/>
    </edge>
    <edge id=":j14_7" function="internal">
        <lane id=":j14_7_0" index="0" speed="13.89" length="14.40" shape="1601.60,-7.20 1601.60,7.20"/>
    </edge>
    <edge id=":j14_8" function="internal">
        <lane id=":j14_8_0" index="0" speed="8.00" length="5.93" shape="1601.60,-7.20 1601.05,-3.35 1600.00,-1.60"/>
    </edge>
    <edge id=":j14_14" function="internal">
        <lane id=":j14_14_0" index="0" speed="8.00" length="8.26" shape="1600.00,-1.60 1599.40,-0.60 1596.65,1.05 1592.80,1.60"/>
    </edge>
    <edge id=":j14_9" function="internal">
        <lane id=":j14_9_0" index="0" speed="6.51" length="9.03" shape="1592.80,-1.60 1595.25,-1.95 1597.00,-3.00 1598.05,-4.75 1598.40,-7.20"/>
    </edge>
    <edge id=":j14_10" function="internal">
        <lane id=":j14_10_0" index="0" speed="13.89" length="14.40" shape="1592.80,-1.60 1607.20,-1.60"/>
    </edge>
    <edge id=":j14_11" function="internal">
        <lane id=":j14_11_0" index="0" speed="8.00" length="5.93" shape="1592.80,-1.60 1596.65,-1.05 1598.40,0.00"/>
    </edge>
    <edge id=":j14_15" function="internal">
        <lane id=":j14_15_0" index="0" speed="8.00" length="8.26" shape="1598.40,0.00 1599.40,0.60 1601.05,3.35 1601.60,7.20"/>
    </edge>
    <edge id=":j15_0" function="internal">
        <lane id=":j15_0_0" index="0" speed="6.51" length="9.03" shape="2398.40,7.20 2398.05,4.75 2397.00,3.00 2395.25,1.95 2392.80,1.60"/>
    </edge>
    <edge id=":j15_1" function="internal">
        <lane id=":j15_1_0" index="0" speed="13.89" length="14.40" shape="2398.40,7.20 2398.40,-7.20"/>
    </edge>
    <edge id=":j15_2" function="internal">
        <lane id=":j15_2_0" index="0" speed="8.00" length="5.93" shape="2398.40,7.20 2398.95,3.35 2400.00,1.60"/>
    </edge>
    <edge id=":j15_12" function="internal">
        <lane id=":j15_12_0" index="0" speed="8.00" length="8.26" shape="2400.00,1.60 2400.60,0.60 2403.35,-1.05 2407.20,-1.60"/>
    </edge>
    <edge id=":j15_3" function="internal">
        <lane id=":j15_3_0" index="0" speed="6.51" length="9.03" shape="2407.20,1.60 2404.75,1.95 2403.00,3.00 2401.95,4.75 2401.60,7.20"/>
    </edge>
    <edge id=":j15_4" function="internal">
        <lane id=":j15_4_0" index="0" speed="13.89" length="14.40" shape="2407.20,1.60 2392.80,1.60"/>
    </edge>
    <edge id=":j15_5" function="internal">
        <lane id=":j15_5_0" index="0" speed="8.00" length="5.93" shape="2407.20,1.60 2403.35,1.05 2401.60,0.00"/>
    </edge>
    <edge id=":j15_13" function="internal">
        <lane id=":j15_13_0" index="0" speed="8.00" length="8.26" shape="2401.60,0.00 2400.60,-0.60 2398.95,-3.35 2398.40,-7.20"/>
    </edge>
    <edge id=":j15_6" function="internal">
        <lane id=":j15_6_0" index="0" speed="6.51" length="9.03" shape="2401.60,-7.20 2401.95,-4.75 2403.00,-3.00 2404.75,-1.95 2407.20,-1.60"/>
    </edge>
    <edge id=":j15_7" function="internal">
        <lane id=":j15_7_0" index="0" speed="13.89" length="14.40" shape="2401.60,-7.20 2401.60,7.20"/>
    </edge>
    <edge id=":j15_8" function="internal">
        <lane id=":j15_8_0" index="0" speed="8.00" length="5.93" shape="2401.60,-7.20 2401.05,-3.35 2400.00,-1.60"/>
    </edge>
    <edge id=":j15_14" function="internal">
        <lane id=":j15_14_0" index="0" speed="8.00" length="8.26" shape="2400.00,-1.60 2399.40,-0.60 2396.65,1.05 2392.80,1.60"/>
    </edge>
    <edge id=":j15_9" function="internal">
        <lane id=":j15_9_0" index="0" speed="6.51" length="9.03" shape="2392.80,-1.60 2395.25,-1.95 2397.00,-3.00 2398.05,-4.75 2398.40,-7.20"/>
    </edge>
    <edge id=":j15_10" function="internal">
        <lane id=":j15_10_0" index="0" speed="13.89" length="14.40" shape="2392.80,-1.60 2407.20,-1.60"/>
    </edge>
    <edge id=":j15_11" function="internal">
        <lane id=":j15_11_0" index="0" speed="8.00" length="5.93" shape="2392.80,-1.60 2396.65,-1.05 2398.40,0.00"/>
    </edge>
    <edge id=":j15_15" function="internal">
        <lane id=":j15_15_0" index="0" speed="8.00" length="8.26" shape="2398.40,0.00 2399.40,0.60 2401.05,3.35 2401.60,7.20"/>
    </edge>
    <edge id=":j16_0" function="internal">
        <lane id=":j16_0_0" index="0" speed="6.51" length="9.03" shape="3198.40,7.20 3198.05,4.75 3197.00,3.00 3195.25,1.95 3192.80,1.60"/>
    </edge>
    <edge id=":j16_1" function="internal">
        <lane id=":j16_1_0" index="0" speed="13.89" length="14.40" shape="3198.40,7.20 3198.40,-7.20"/>
    </edge>
    <edge id=":j16_2" function="internal">
        <lane id=":j16_2_0" index="0" speed="8.00" length="5.93" shape="3198.40,7.20 3198.95,3.35 3200.00,1.60"/>
    </edge>
    <edge id=":j16_12" function="internal">
        <lane id=":j16_12_0" index="0" speed="8.00" length="8.26" shape="3200.00,1.60 3200.60,0.60 3203.35,-1.05 3207.20,-1.60"/>
    </edge>
    <edge id=":j16_3" function="internal">
        <lane id=":j16_3_0" index="0" speed="6.51" length="9.03" shape="3207.20,1.60 3204.75,1.95 3203.00,3.00 3201.95,4.75 3201.60,7.20"/>
    </edge>
    <edge id=":j16_4" function="internal">
        <lane id=":j16_4_0" index="0" speed="13.89" length="14.40" shape="3207.20,1.60 3192.80,1.60"/>
    </edge>
    <edge id=":j16_5" function="internal">
        <lane id=":j16_5_0" index="0" speed="8.00" length="5.93" shape="3207.20,1.60 3203.35,1.05 3201.60,0.00"/>
    </edge>
    <edge id=":j16_13" function="internal">
        <lane id=":j16_13_0" index="0" speed="8.00" length="8.26" shape="3201.60,0.00 3200.60,-0.60 3198.95,-3.35 3198.40,-7.20"/>
    </edge>
    <edge id=":j16_6" function="internal">
        <lane id=":j16_6_0" index="0" speed="6.51" length="9.03" shape="3201.60,-7.20 3201.95,-4.75 3203.00,-3.00 3204.75,-1.95 3207.20,-1.60"/>
    </edge>
    <edge id=":j16_7" function="internal">
        <lane id=":j16_7_0" index="0" speed="13.89" length="14.40" shape="3201.60,-7.20 3201.60,7.20"/>
    </edge>
    <edge id=":j16_8" function="internal">
        <lane id=":j16_8_0" index="0" speed="8.00" length="5.93" shape="3201.60,-7.20 3201.05,-3.35 3200.00,-1.60"/>
    </edge>
    <edge id=":j16_14" function="internal">
        <lane id=":j16_14_0" index="0" speed="8.00" length="8.26" shape="3200.00,-1.60 3199.40,-0.60 3196.65,1.05 3192.80,1.60"/>
    </edge>
    <edge id=":j16_9" function="internal">
        <lane id=":j16_9_0" index="0" speed="6.51" length="9.03" shape="3192.80,-1.60 3195.25,-1.95 3197.00,-3.00 3198.05,-4.75 3198.40,-7.20"/>
    </edge>
    <edge id=":j16_10" function="internal">
        <lane id=":j16_10_0" index="0" speed="13.89" length="14.40" shape="3192.80,-1.60 3207.20,-1.60"/>
    </edge>
    <edge id=":j16_11" function="internal">
        <lane id=":j16_11_0" index="0" speed="8.00" length="5.93" shape="3192.80,-1.60 3196.65,-1.05 3198.40,0.00"/>
    </edge>
    <edge id=":j16_15" function="internal">
        <lane id=":j16_15_0" index="0" speed="8.00" length="8.26" shape="3198.40,0.00 3199.40,0.60 3201.05,3.35 3201.60,7.20"/>
    </edge>
    <edge id=":j2_0" function="internal">
        <lane id=":j2_0_0" index="0" speed="6.51" length="9.03" shape="1598.40,2407.20 1598.05,2404.75 1597.00,2403.00 1595.25,2401.95 1592.80,2401.60"/>
    </edge>
    <edge id=":j2_1" function="internal">
        <lane id=":j2_1_0" index="0" speed="13.89" length="14.40" shape="1598.40,2407.20 1598.40,2392.80"/>
    </edge>
    <edge id=":j2_2" function="internal">
        <lane id=":j2_2_0" index="0" speed="8.00" length="5.93" shape="1598.40,2407.20 1598.95,2403.35 1600.00,2401.60"/>
    </edge>
    <edge id=":j2_12" function="internal">
        <lane id=":j2_12_0" index="0" speed="8.00" length="8.26" shape="1600.00,2401.60 1600.60,2400.60 1603.35,2398.95 1607.20,2398.40"/>
    </edge>
    <edge id=":j2_3" function="internal">
        <lane id=":j2_3_0" index="0" speed="6.51" length="9.03" shape="1607.20,2401.60 1604.75,2401.95 1603.00,2403.00 1601.95,2404.75 1601.60,2407.20"/>
    </edge>
    <edge id=":j2_4" function="internal">
        <lane id=":j2_4_0" index="0" speed="13.89" length="14.40" shape="1607.20,2401.60 1592.80,2401.60"/>
    </edge>
    <edge id=":j2_5" function="internal">
        <lane id=":j2_5_0" index="0" speed="8.00" length="5.93" shape="1607.20,2401.60 1603.35,2401.05 1601.60,2400.00"/>
    </edge>
    <edge id=":j2_13" function="internal">
        <lane id=":j2_13_0" index="0" speed="8.00" length="8.26" shape="1601.60,2400.00 1600.60,2399.40 1598.95,2396.65 1598.40,2392.80"/>
    </edge>
    <edge id=":j2_6" function="internal">
        <lane id=":j2_6_0" index="0" speed="6.51" length="9.03" shape="1601.60,2392.80 1601.95,2395.25 1603.00,2397.00 1604.75,2398.05 1607.20,2398.40"/>
    </edge>
    <edge id=":j2_7" function="internal">
        <lane id=":j2_7_0" index="0" speed="13.89" length="14.40" shape="1601.60,2392.80 1601.60,2407.20"/>
    </edge>
    <edge id=":j2_8" function="internal">
        <lane id=":j2_8_0" index="0" speed="8.00" length="5.93" shape="1601.60,2392.80 1601.05,2396.65 1600.00,2398.40"/>
    </edge>
    <edge id=":j2_14" function="internal">
        <lane id=":j2_14_0" index="0" speed="8.00" length="8.26" shape="1600.00,2398.40 1599.40,2399.40 1596.65,2401.05 1592.80,2401.60"/>
    </edge>
    <edge id=":j2_9" function="internal">
        <lane id=":j2_9_0" index="0" speed="6.51" length="9.03" shape="1592.80,2398.40 1595.25,2398.05 1597.00,2397.00 1598.05,2395.25 1598.40,2392.80"/>
    </edge>
    <edge id=":j2_10" function="internal">
        <lane id=":j2_10_0" index="0" speed="13.89" length="14.40" shape="1592.80,2398.40 1607.20,2398.40"/>
    </edge>
    <edge id=":j2_11" function="internal">
        <lane id=":j2_11_0" index="0" speed="8.00" length="5.93" shape="1592.80,2398.40 1596.65,2398.95 1598.40,2400.00"/>
    </edge>
    <edge id=":j2_15" function="internal">
        <lane id=":j2_15_0" index="0" speed="8.00" length="8.26" shape="1598.40,2400.00 1599.40,2400.60 1601.05,2403.35 1601.60,2407.20"/>
    </edge>
    <edge id=":j3_0" function="internal">
        <lane id=":j3_0_0" index="0" speed="6.51" length="9.03" shape="2398.40,2407.20 2398.05,2404.75 2397.00,2403.00 2395.25,2401.95 2392.80,2401.60"/>
    </edge>
    <edge id=":j3_1" function="internal">
        <lane id=":j3_1_0" index="0" speed="13.89" length="14.40" shape="2398.40,2407.20 2398.40,2392.80"/>
    </edge>
    <edge id=":j3_2" function="internal">
        <lane id=":j3_2_0" index="0" speed="8.00" length="5.93" shape="2398.40,2407.20 2398.95,2403.35 2400.00,2401.60"/>
    </edge>
    <edge id=":j3_12" function="internal">
        <lane id=":j3_12_0" index="0" speed="8.00" length="8.26" shape="2400.00,2401.60 2400.60,2400.60 2403.35,2398.95 2407.20,2398.40"/>
    </edge>
    <edge id=":j3_3" function="internal">
        <lane id=":j3_3_0" index="0" speed="6.51" length="9.03" shape="2407.20,2401.60 2404.75,2401.95 2403.00,2403.00 2401.95,2404.75 2401.60,2407.20"/>
    </edge>
    <edge id=":j3_4" function="internal">
        <lane id=":j3_4_0" index="0" speed="13.89" length="14.40" shape="2407.20,2401.60 2392.80,2401.60"/>
    </edge>
    <edge id=":j3_5" function="internal">
        <lane id=":j3_5_0" index="0" speed="8.00" length="5.93" shape="2407.20,2401.60 2403.35,2401.05 2401.60,2400.00"/>
    </edge>
    <edge id=":j3_13" function="internal">
        <lane id=":j3_13_0" index="0" speed="8.00" length="8.26" shape="2401.60,2400.00 2400.60,2399.40 2398.95,2396.65 2398.40,2392.80"/>
    </edge>
    <edge id=":j3_6" function="internal">
        <lane id=":j3_6_0" index="0" speed="6.51" length="9.03" shape="2401.60,2392.80 2401.95,2395.25 2403.00,2397.00 2404.75,2398.05 2407.20,2398.40"/>
    </edge>
    <edge id=":j3_7" function="internal">
        <lane id=":j3_7_0" index="0" speed="13.89" length="14.40" shape="2401.60,2392.80 2401.60,2407.20"/>
    </edge>
    <edge id=":j3_8" function="internal">
        <lane id=":j3_8_0" index="0" speed="8.00" length="5.93" shape="2401.60,2392.80 2401.05,2396.65 2400.00,2398.40"/>
    </edge>
    <edge id=":j3_14" function="internal">
        <lane id=":j3_14_0" index="0" speed="8.00" length="8.26" shape="2400.00,2398.40 2399.40,2399.40 2396.65,2401.05 2392.80,2401.60"/>
    </edge>
    <edge id=":j3_9" function="internal">