<?xml version="1.0" encoding="UTF-8"?>

<!-- generated on 02/15/22 17:07:13 by Eclipse SUMO netedit Version 1.8.0
<configuration xmlns:xsi="http://www.w3.org/2001/XMLSchema-instance" xsi:noNamespaceSchemaLocation="http://sumo.dlr.de/xsd/netconvertConfiguration.xsd">

    <input>
        <sumo-net-file value="D:\SUMO-Map\sumomap.net.xml"/>
    </input>

    <output>
        <output-file value="D:\SUMO-Map\sumomap.net.xml"/>
    </output>

    <processing>
        <geometry.min-radius.fix.railways value="false"/>
        <geometry.max-grade.fix value="false"/>
        <offset.disable-normalization value="true"/>
        <lefthand value="false"/>
    </processing>

    <junctions>
        <no-turnarounds value="true"/>
        <junctions.corner-detail value="5"/>
        <junctions.limit-turn-speed value="5.5"/>
        <rectangular-lane-cut value="false"/>
    </junctions>

    <pedestrian>
        <walkingareas value="false"/>
    </pedestrian>

    <netedit>
        <additional-files value="D:\SUMO-Map\HOSPITAL.add.xml"/>
    </netedit>

    <report>
        <aggregate-warnings value="5"/>
    </report>

</configuration>
-->

<additional xmlns:xsi="http://www.w3.org/2001/XMLSchema-instance" xsi:noNamespaceSchemaLocation="http://sumo.dlr.de/xsd/additional_file.xsd">
    <poly id="poly_0" color="red" fill="0" layer="128.00" shape="257.780000,276.710000 259.740000,276.650000 259.790000,278.720000 261.800000,278.670000 261.750000,276.650000 263.870000,276.650000 263.920000,274.640000 261.860000,274.690000 261.910000,272.890000 259.690000,272.940000 259.740000,274.740000 257.780000,274.740000 257.830000,276.710000"/>
</additional>
