<?xml version="1.0" encoding="UTF-8"?>

<routes>

  <vType accel="10000" decel="100000" id="carB" type="emergency" length="7" minGap="4" maxSpeed="16.7" sigma="0.5" />



  <trip id="ev" type="carB" depart="30" from="L11" to="L00" via="L4 -L3 L49" color="0,1,1"/>、



</routes>


